/*--------------------------------*- C++ -*----------------------------------*\
| =========                 |                                                 |
| \\      /  F ield         | OpenFOAM: The Open Source CFD Toolbox           |
|  \\    /   O peration     | Version:  3.0.1                                 |
|   \\  /    A nd           | Web:      www.OpenFOAM.org                      |
|    \\/     M anipulation  |                                                 |
\*---------------------------------------------------------------------------*/
FoamFile
{
    version     2.0;
    format      ascii;
    class       polyBoundaryMesh;
    location    "constant/polyMesh";
    object      boundary;
}
// * * * * * * * * * * * * * * * * * * * * * * * * * * * * * * * * * * * * * //

9
(
    upstream
    {
        type            patch;
        nFaces          756;
        startFace       758727;
    }
    downstream
    {
        type            patch;
        nFaces          318;
        startFace       759483;
    }
    leftWall
    {
        type            wall;
        inGroups        1(wall);
        nFaces          0;
        startFace       759801;
    }
    rightWall
    {
        type            wall;
        inGroups        1(wall);
        nFaces          0;
        startFace       759801;
    }
    top
    {
        type            wall;
        inGroups        1(wall);
        nFaces          0;
        startFace       759801;
    }
    bottom
    {
        type            wall;
        inGroups        1(wall);
        nFaces          0;
        startFace       759801;
    }
    PipeBaffle
    {
        type            wall;
        inGroups        1(wall);
        nFaces          18123;
        startFace       759801;
    }
    PipeUpDown
    {
        type            wall;
        inGroups        1(wall);
        nFaces          32026;
        startFace       777924;
    }
    baffles
    {
        type            wall;
        inGroups        1(wall);
        nFaces          9396;
        startFace       809950;
    }
)

// ************************************************************************* //
