/*--------------------------------*- C++ -*----------------------------------*\
| =========                 |                                                 |
| \\      /  F ield         | OpenFOAM: The Open Source CFD Toolbox           |
|  \\    /   O peration     | Version:  3.0.1                                 |
|   \\  /    A nd           | Web:      www.OpenFOAM.org                      |
|    \\/     M anipulation  |                                                 |
\*---------------------------------------------------------------------------*/
FoamFile
{
    version     2.0;
    format      ascii;
    class       dictionary;
    location    "system";
    object      fvSolution;
}
// * * * * * * * * * * * * * * * * * * * * * * * * * * * * * * * * * * * * * //

solvers
{
    p
    {
        solver          GAMG;
        tolerance       1e-12;
        relTol          0.1;
        smoother        symGaussSeidel;
        nPreSweeps      0;
        nPostSweeps     0;
        cacheAgglomeration on;
        agglomerator    faceAreaPair;
        nCellsInCoarsestLevel 20;
        mergeLevels     1;
    }

    /*"(U|k|epsilon|omega|f|v2|Phi)"
    {
        solver          GAMG;
        tolerance       1e-12;
        relTol          0.1;
        smoother        symGaussSeidel;
        nPreSweeps      0;
        nPostSweeps     2;
        cacheAgglomeration on;
        agglomerator    faceAreaPair;
        nCellsInCoarsestLevel 20;
        mergeLevels     1;
    }*/

    "(U|k|epsilon|omega|f|v2|Phi)"
    {
        solver          smoothSolver;
        smoother        symGaussSeidel;
	nSweeps 	3;
        tolerance       1e-12;
        relTol          0.1;
    }
}

/*PIMPLE
{
    nOuterCorrectors 1;
    nCorrectors     2;
    nNonOrthogonalCorrectors 0;
    pRefCell        0;
    pRefValue       0;
}*/

SIMPLE
{
    nNonOrthogonalCorrectors 3;
    consistent      yes;

    residualControl
    {
        p               1e-12;
        U               1e-12;
k 1e-12;
omega 1e-12;
        "(k|epsilon|omega|f|v2)" 1e-12;
    }
}

/*potentialFlow
{
    nNonOrthogonalCorrectors 10;
}*/

relaxationFactors
{
    equations
    {
 	"U*"               0.6; // 0.3 0.9 is more stable but 0.95 more convergent       
	p            0.6; //0.5 0.9 is more stable but 0.95 more convergent
	k            0.6; //0.3 0.9 is more stable but 0.95 more convergent
	omega            0.6; //0.3 0.9 is more stable but 0.95 more convergent
	epsilon            0.6;
    }
}


// ************************************************************************* //
