/*--------------------------------*- C++ -*----------------------------------*\
| =========                 |                                                 |
| \\      /  F ield         | OpenFOAM: The Open Source CFD Toolbox           |
|  \\    /   O peration     | Version:  2.1.0                                 |
|   \\  /    A nd           | Web:      www.OpenFOAM.org                      |
|    \\/     M anipulation  |                                                 |
\*---------------------------------------------------------------------------*/
FoamFile
{
    version     2.0;
    format      ascii;
    class       dictionary;
    object      snappyHexMeshDict;
}
// * * * * * * * * * * * * * * * * * * * * * * * * * * * * * * * * * * * * * //

castellatedMesh true;
snap            true;
addLayers       false;

geometry
{
    PipeBaffle.stl
    {
        type        triSurfaceMesh;
	name        PipeBaffle;
    }

    PipeUpstream.stl
    {
        type        triSurfaceMesh;
	name        PipeUpDown;
    }

    PipeDownstream.stl
    {
        type        triSurfaceMesh;
	name        PipeUpDown;
    }

    /*SPB3331506.stl
    {
        type        triSurfaceMesh;
	name        baffles;
    }*/

    /*SPB3331006.stl
    {
        type        triSurfaceMesh;
	name        baffles;
    }*/

    SPB2121506.stl
    {
        type        triSurfaceMesh;
	name        baffles;
    }

    /*SPB2121006.stl
    {
        type        triSurfaceMesh;
	name        baffles;
    }*/

    baffleRefine
    {
      type searchableBox;
      min (3.75 0 -0.2);
      max (5.44 0.127 0.2);
    }

};

castellatedMeshControls
{
    maxLocalCells 1000000;
    maxGlobalCells 4000000;
    minRefinementCells 0;
    maxLoadUnbalance 0.10;
    nCellsBetweenLevels 3;

    features 
    ();

    refinementSurfaces
    {
        PipeUpDown
        {
	  level (1 2);
        }

        PipeBaffle
        {
	  level (1 2);
        }

        baffles
        {
	  level (2 3);
        }
    }

    resolveFeatureAngle 30;

    refinementRegions
    {
       baffleRefine
       {
         mode inside;
         levels ((0.0 0));
       }
    }

    locationInMesh (1.0 0.15 0);
    allowFreeStandingZoneFaces true;
}


snapControls
{
    nSmoothPatch 3;
    tolerance 4.0;
    nSolveIter 30;
    nRelaxIter 5;
    nFeatureSnapIter 10;
}

addLayersControls
{
    relativeSizes true;
    layers
    {
         pipe
        {
            nSurfaceLayers 2;
        }
         baffles
        {
            nSurfaceLayers 2;
        }
    }

    expansionRatio 1.0;
    finalLayerThickness 0.5;
    minThickness 0.5;
    nGrow 0;
    featureAngle 180;
    nRelaxIter 5;
    nSmoothSurfaceNormals 1;
    nSmoothNormals 3;
    nSmoothThickness 10;
    maxFaceThicknessRatio 0.5;
    maxThicknessToMedialRatio 0.3;
    minMedianAxisAngle 90;
    nBufferCellsNoExtrude 0;
    nLayerIter 50;
}

meshQualityControls
{
    maxNonOrtho 65;
    maxBoundarySkewness 20;
    maxInternalSkewness 4;
    maxConcave 80;
    minVol 1e-13;
    minTetQuality 1e-30;
    minArea -1;
    minTwist 0.05;
    minDeterminant 0.001;
    minFaceWeight 0.05;
    minVolRatio 0.01;
    minTriangleTwist -1;
    nSmoothScale 4;
    errorReduction 0.75;
}

writeFlags
(
    scalarLevels 
);

mergeTolerance 1e-6;


// ************************************************************************* //
